Circuit: * C:\Users\TheBear\ECE411\Antenna_Filters\LTSpice_filter_designs\433MHz filter with added low pass_and increased high pass.asc

R3: both pins shorted together -- ignoring.
WARNING: Node N004 is floating.


Date: Mon Oct 19 22:18:40 2015
Total elapsed time: 0.016 seconds.

tnom = 27
temp = 27
method = trap
totiter = 0
traniter = 0
tranpoints = 0
accept = 0
rejected = 0
matrix size = 7
fillins = 0
solver = Normal

