Circuit: * C:\Users\TheBear\ECE411\Antenna_Filters\LTSpice_filter_designs\433MHz filter with added low pass_vs 2.asc

R3: both pins shorted together -- ignoring.

Date: Mon Oct 19 22:18:44 2015
Total elapsed time: 0.015 seconds.

tnom = 27
temp = 27
method = trap
totiter = 0
traniter = 0
tranpoints = 0
accept = 0
rejected = 0
matrix size = 6
fillins = 0
solver = Normal

