Circuit: * C:\Users\TheBear\sputnik\RF_Materials\Antenna_Filters\LTSpice_filter_designs\DualOutPutFilter.asc


Date: Tue Feb 09 21:51:51 2016
Total elapsed time: 0.343 seconds.

tnom = 27
temp = 27
method = trap
totiter = 0
traniter = 0
tranpoints = 0
accept = 0
rejected = 0
matrix size = 17
fillins = 16
solver = Normal

