Circuit: * C:\users\jake\My Documents\ECE411\RF_Materials\Antenna_Filters\LTSpice_filter_designs\DualOutPutFilter.asc


Date: Tue Jan 05 18:46:15 2016
Total elapsed time: 0.989 seconds.

tnom = 27
temp = 27
method = trap
totiter = 0
traniter = 0
tranpoints = 0
accept = 0
rejected = 0
matrix size = 17
fillins = 16
solver = Normal

