Circuit: * \\psf\Home\Desktop\ECE411_Filters_LTSpice\project front end 436.5_with_V+_version4.asc


Date: Wed Nov 11 17:56:52 2015
Total elapsed time: 0.703 seconds.

tnom = 27
temp = 27
method = trap
totiter = 0
traniter = 0
tranpoints = 0
accept = 0
rejected = 0
matrix size = 9
fillins = 6
solver = Normal

